
Note: No compatibility mode selected!


Circuit: * audio_412_bridge_varactor_diode_model_proxy: physical 4->8->12 nonlinear lc bridge

Doing analysis at TEMP = 27.000000 and TNOM = 27.000000

Using transient initial conditions
 Reference value :  4.11563e-02
 Reference value :  7.74169e-02
No. of Data Rows : 13059
binary raw file "audio_412_bridge_varactor_diode_model_proxy.raw"
ngspice-42 done

Using SPARSE 1.3 as Direct Linear Solver
The Inductive System consisting of
 l1 l2 l3
 k12 k23
has an incomplete set of K couplings, (missing ones are implicitly 0)
