
Note: No compatibility mode selected!


Circuit: * audio_412_bridge: physical 4->8->12 nonlinear lc bridge

Doing analysis at TEMP = 27.000000 and TNOM = 27.000000

Using transient initial conditions
binary raw file "audio_412_bridge.raw"
ngspice-42 done

Using SPARSE 1.3 as Direct Linear Solver
The Inductive System consisting of
 l1 l2 l3
 k12 k23
has an incomplete set of K couplings, (missing ones are implicitly 0)

doAnalyses: TRAN:  Timestep too small; time = 0.00053352, timestep = 2.71702e-16: trouble with node "n1"


run simulation(s) aborted
