
Note: No compatibility mode selected!


Circuit: * low_rf_412_bridge_saturable_inductor_proxy: physical 4->8->12 nonlinear lc bridge

Doing analysis at TEMP = 27.000000 and TNOM = 27.000000

Using transient initial conditions
 Reference value :  2.39748e-05
No. of Data Rows : 9129
binary raw file "low_rf_412_bridge_saturable_inductor_proxy.raw"
ngspice-42 done

Using SPARSE 1.3 as Direct Linear Solver
The Inductive System consisting of
 l1 l2 l3
 k12 k23
has an incomplete set of K couplings, (missing ones are implicitly 0)
